/*--------------------------------*- C++ -*----------------------------------*\
  =========                 |
  \\      /  F ield         | OpenFOAM: The Open Source CFD Toolbox
   \\    /   O peration     | Website:  https://openfoam.org
    \\  /    A nd           | Version:  8
     \\/     M anipulation  |
\*---------------------------------------------------------------------------*/
FoamFile
{
    version     2.0;
    format      ascii;
    class       polyBoundaryMesh;
    location    "constant/polyMesh";
    object      boundary;
}
// * * * * * * * * * * * * * * * * * * * * * * * * * * * * * * * * * * * * * //

6
(
    inlet
    {
        type            patch;
        nFaces          40;
        startFace       11415;
    }
    outlet
    {
        type            patch;
        nFaces          40;
        startFace       11455;
    }
    cylinder
    {
        type            wall;
        inGroups        List<word> 1(wall);
        nFaces          80;
        startFace       11495;
    }
    top
    {
        type            symmetryPlane;
        inGroups        List<word> 1(symmetryPlane);
        nFaces          105;
        startFace       11575;
    }
    bottom
    {
        type            symmetryPlane;
        inGroups        List<word> 1(symmetryPlane);
        nFaces          105;
        startFace       11680;
    }
    FrontAndBack
    {
        type            empty;
        inGroups        List<word> 1(empty);
        nFaces          11600;
        startFace       11785;
    }
)

// ************************************************************************* //
